@<TRIPOS>MOLECULE
_RING_RING_RING_RING_DONOR_DONOR_DONOR
 37 34 0 0 0
SMALL
GASTEIGER

@<TRIPOS>ATOM
      1 C          43.3030   27.1080   11.2610 C.3     1  UNL1        0.0000
      2 C          42.7770   25.8440   11.3330 C.3     1  UNL1        0.0000
      3 C          42.0940   25.7340   12.5170 C.3     1  UNL1        0.0000
      4 C          42.1950   26.9300   13.1800 C.3     1  UNL1        0.0000
      5 C          42.9420   27.7750   12.4020 C.3     1  UNL1        0.0000
      6 C          40.2770   28.6670   11.0470 C.3     2  UNL2        0.0000
      7 C          39.5120   27.4310   10.5290 C.3     2  UNL2        0.0000
      8 C          38.4140   27.8030    9.5230 C.3     2  UNL2        0.0000
      9 C          37.5640   28.9520   10.0770 C.3     2  UNL2        0.0000
     10 C          38.4140   30.1790   10.3090 C.3     2  UNL2        0.0000
     11 C          39.6510   29.9760   10.8070 C.3     2  UNL2        0.0000
     12 C          39.1080   32.3930    7.4410 C.3     3  UNL3        0.0000
     13 C          39.0170   31.3720    8.5910 C.3     3  UNL3        0.0000
     14 C          40.3180   30.5720    8.7310 C.3     3  UNL3        0.0000
     15 C          40.6820   29.9370    7.3830 C.3     3  UNL3        0.0000
     16 C          40.8530   30.9820    6.3060 C.3     3  UNL3        0.0000
     17 C          40.0550   32.0700    6.3640 C.3     3  UNL3        0.0000
     18 C          41.3000   27.7590   13.6780 C.3     4  UNL4        0.0000
     19 C          40.7420   28.6850   12.8350 C.3     4  UNL4        0.0000
     20 C          40.4230   28.0540   11.6600 C.3     4  UNL4        0.0000
     21 C          40.7830   26.7360   11.7760 C.3     4  UNL4        0.0000
     22 C          41.3230   26.5560   13.0230 C.3     4  UNL4        0.0000
     23 C          40.4810   25.8120   12.5520 C.2     5  UNL5        0.2716
     24 C          40.4810   25.8120   12.5520 C.3     5  UNL5        0.2544
     25 N          40.4810   25.8120   12.5520 N.2     5  UNL5       -0.2626
     26 O          40.4810   25.8120   12.5520 O.2     5  UNL5       -0.4534
     27 H          39.5000   26.0210   12.6520 H       5  UNL5        0.1900
     28 C          43.2210   25.5640   12.1870 C.2     6  UNL6        0.2716
     29 C          43.2210   25.5640   12.1870 C.3     6  UNL6        0.2544
     30 N          43.2210   25.5640   12.1870 N.2     6  UNL6       -0.2626
     31 O          43.2210   25.5640   12.1870 O.2     6  UNL6       -0.4534
     32 H          44.1840   25.8550   12.2570 H       6  UNL6        0.1900
     33 C          42.8950   27.9270   13.3150 C.2     7  UNL7        0.2716
     34 C          42.8950   27.9270   13.3150 C.3     7  UNL7        0.2544
     35 N          42.8950   27.9270   13.3150 N.2     7  UNL7       -0.2626
     36 O          42.8950   27.9270   13.3150 O.2     7  UNL7       -0.4534
     37 H          43.9030   27.9060   13.3830 H       7  UNL7        0.1900
@<TRIPOS>BOND
     1     1     2    1
     2     2     3    1
     3     3     4    1
     4     4     5    1
     5     1     5    1
     6     6     7    1
     7     7     8    1
     8     8     9    1
     9     9    10    1
    10    10    11    1
    11     6    11    1
    12    12    13    1
    13    13    14    1
    14    14    15    1
    15    15    16    1
    16    16    17    1
    17    12    17    1
    18    18    19    1
    19    19    20    1
    20    20    21    1
    21    21    22    1
    22    18    22    1
    23    23    25    2
    24    23    26    1
    25    24    26    1
    26    25    27    1
    27    28    30    2
    28    28    31    1
    29    29    31    1
    30    30    32    1
    31    33    35    2
    32    33    36    1
    33    34    36    1
    34    35    37    1
