RING
  ATLAS   

  5  5  0  0  0  0  0  0  0  0  1 V2000
   43.3034   27.1084   11.2606 C   0  0  0  0  0  0  0  0  0  0  0  0
   42.7773   25.8443   11.3329 C   0  0  0  0  0  0  0  0  0  0  0  0
   42.0936   25.7336   12.5172 C   0  0  0  0  0  0  0  0  0  0  0  0
   42.1955   26.9298   13.1800 C   0  0  0  0  0  0  0  0  0  0  0  0
   42.9424   27.7754   12.4021 C   0  0  0  0  0  0  0  0  0  0  0  0
  1  2  1  0  0  0  0
  2  3  1  0  0  0  0
  3  4  1  0  0  0  0
  4  5  1  0  0  0  0
  5  1  1  0  0  0  0
M  END
> <CLUSTER_SIZE>
5513

$$$$
RING
  ATLAS   

  6  6  0  0  0  0  0  0  0  0  1 V2000
   40.2769   28.6668   11.0465 C   0  0  0  0  0  0  0  0  0  0  0  0
   39.5119   27.4307   10.5289 C   0  0  0  0  0  0  0  0  0  0  0  0
   38.4138   27.8034    9.5231 C   0  0  0  0  0  0  0  0  0  0  0  0
   37.5641   28.9525   10.0772 C   0  0  0  0  0  0  0  0  0  0  0  0
   38.4142   30.1793   10.3088 C   0  0  0  0  0  0  0  0  0  0  0  0
   39.6514   29.9761   10.8065 C   0  0  0  0  0  0  0  0  0  0  0  0
  1  2  1  0  0  0  0
  2  3  1  0  0  0  0
  3  4  1  0  0  0  0
  4  5  1  0  0  0  0
  5  6  1  0  0  0  0
  6  1  1  0  0  0  0
M  END
> <CLUSTER_SIZE>
4186

$$$$
RING
  ATLAS   

  6  6  0  0  0  0  0  0  0  0  1 V2000
   39.1081   32.3933    7.4413 C   0  0  0  0  0  0  0  0  0  0  0  0
   39.0166   31.3723    8.5912 C   0  0  0  0  0  0  0  0  0  0  0  0
   40.3179   30.5724    8.7308 C   0  0  0  0  0  0  0  0  0  0  0  0
   40.6821   29.9369    7.3834 C   0  0  0  0  0  0  0  0  0  0  0  0
   40.8531   30.9820    6.3055 C   0  0  0  0  0  0  0  0  0  0  0  0
   40.0549   32.0700    6.3635 C   0  0  0  0  0  0  0  0  0  0  0  0
  1  2  1  0  0  0  0
  2  3  1  0  0  0  0
  3  4  1  0  0  0  0
  4  5  1  0  0  0  0
  5  6  1  0  0  0  0
  6  1  1  0  0  0  0
M  END
> <CLUSTER_SIZE>
1799

$$$$
RING
  ATLAS   

  5  5  0  0  0  0  0  0  0  0  1 V2000
   41.3000   27.7593   13.6776 C   0  0  0  0  0  0  0  0  0  0  0  0
   40.7418   28.6854   12.8346 C   0  0  0  0  0  0  0  0  0  0  0  0
   40.4232   28.0538   11.6595 C   0  0  0  0  0  0  0  0  0  0  0  0
   40.7826   26.7356   11.7760 C   0  0  0  0  0  0  0  0  0  0  0  0
   41.3227   26.5562   13.0228 C   0  0  0  0  0  0  0  0  0  0  0  0
  1  2  1  0  0  0  0
  2  3  1  0  0  0  0
  3  4  1  0  0  0  0
  4  5  1  0  0  0  0
  5  1  1  0  0  0  0
M  END
> <CLUSTER_SIZE>
651

$$$$
RING
  ATLAS   

  6  6  0  0  0  0  0  0  0  0  1 V2000
   41.5348   25.7008   11.4365 C   0  0  0  0  0  0  0  0  0  0  0  0
   40.7108   26.5255   10.6522 C   0  0  0  0  0  0  0  0  0  0  0  0
   41.2386   27.0120    9.4416 C   0  0  0  0  0  0  0  0  0  0  0  0
   42.5414   26.6819    9.0243 C   0  0  0  0  0  0  0  0  0  0  0  0
   43.3020   25.8509    9.8635 C   0  0  0  0  0  0  0  0  0  0  0  0
   42.8030   25.3744   11.0439 C   0  0  0  0  0  0  0  0  0  0  0  0
  1  2  1  0  0  0  0
  2  3  1  0  0  0  0
  3  4  1  0  0  0  0
  4  5  1  0  0  0  0
  5  6  1  0  0  0  0
  6  1  1  0  0  0  0
M  END
> <CLUSTER_SIZE>
289

$$$$
RING
  ATLAS   

  5  5  0  0  0  0  0  0  0  0  1 V2000
   38.8769   29.1408    8.3944 C   0  0  0  0  0  0  0  0  0  0  0  0
   39.4652   30.2855    7.9212 C   0  0  0  0  0  0  0  0  0  0  0  0
   39.1662   31.3080    8.7858 C   0  0  0  0  0  0  0  0  0  0  0  0
   38.4003   30.7957    9.8014 C   0  0  0  0  0  0  0  0  0  0  0  0
   38.2205   29.4599    9.5540 C   0  0  0  0  0  0  0  0  0  0  0  0
  1  2  1  0  0  0  0
  2  3  1  0  0  0  0
  3  4  1  0  0  0  0
  4  5  1  0  0  0  0
  5  1  1  0  0  0  0
M  END
> <CLUSTER_SIZE>
229

$$$$
RING
  ATLAS   

  5  5  0  0  0  0  0  0  0  0  1 V2000
   41.4627   25.2285   12.3953 C   0  0  0  0  0  0  0  0  0  0  0  0
   42.6618   25.1279   13.0345 C   0  0  0  0  0  0  0  0  0  0  0  0
   42.4691   25.5769   14.3699 C   0  0  0  0  0  0  0  0  0  0  0  0
   41.1902   25.9349   14.5473 C   0  0  0  0  0  0  0  0  0  0  0  0
   40.6005   25.7185   13.3429 C   0  0  0  0  0  0  0  0  0  0  0  0
  1  2  1  0  0  0  0
  2  3  1  0  0  0  0
  3  4  1  0  0  0  0
  4  5  1  0  0  0  0
  5  1  1  0  0  0  0
M  END
> <CLUSTER_SIZE>
122

$$$$
