@<TRIPOS>MOLECULE
_RING_RING_RING_RING_RING_RING_RING
 38 38 0 0 0
SMALL
GASTEIGER

@<TRIPOS>ATOM
      1 C          43.3034   27.1084   11.2606 C.3     1  UNL1        0.0000
      2 C          42.7773   25.8443   11.3329 C.3     1  UNL1        0.0000
      3 C          42.0936   25.7336   12.5172 C.3     1  UNL1        0.0000
      4 C          42.1955   26.9298   13.1800 C.3     1  UNL1        0.0000
      5 C          42.9424   27.7754   12.4021 C.3     1  UNL1        0.0000
      6 C          40.2769   28.6668   11.0465 C.3     2  UNL2        0.0000
      7 C          39.5119   27.4307   10.5289 C.3     2  UNL2        0.0000
      8 C          38.4138   27.8034    9.5231 C.3     2  UNL2        0.0000
      9 C          37.5641   28.9525   10.0772 C.3     2  UNL2        0.0000
     10 C          38.4142   30.1793   10.3088 C.3     2  UNL2        0.0000
     11 C          39.6514   29.9761   10.8065 C.3     2  UNL2        0.0000
     12 C          39.1081   32.3933    7.4413 C.3     3  UNL3        0.0000
     13 C          39.0166   31.3723    8.5912 C.3     3  UNL3        0.0000
     14 C          40.3179   30.5724    8.7308 C.3     3  UNL3        0.0000
     15 C          40.6821   29.9369    7.3834 C.3     3  UNL3        0.0000
     16 C          40.8531   30.9820    6.3055 C.3     3  UNL3        0.0000
     17 C          40.0549   32.0700    6.3635 C.3     3  UNL3        0.0000
     18 C          41.3000   27.7593   13.6776 C.3     4  UNL4        0.0000
     19 C          40.7418   28.6854   12.8346 C.3     4  UNL4        0.0000
     20 C          40.4232   28.0538   11.6595 C.3     4  UNL4        0.0000
     21 C          40.7826   26.7356   11.7760 C.3     4  UNL4        0.0000
     22 C          41.3227   26.5562   13.0228 C.3     4  UNL4        0.0000
     23 C          41.5348   25.7008   11.4365 C.3     5  UNL5        0.0000
     24 C          40.7108   26.5255   10.6522 C.3     5  UNL5        0.0000
     25 C          41.2386   27.0120    9.4416 C.3     5  UNL5        0.0000
     26 C          42.5414   26.6819    9.0243 C.3     5  UNL5        0.0000
     27 C          43.3020   25.8509    9.8635 C.3     5  UNL5        0.0000
     28 C          42.8030   25.3744   11.0439 C.3     5  UNL5        0.0000
     29 C          38.8769   29.1408    8.3944 C.3     6  UNL6        0.0000
     30 C          39.4652   30.2855    7.9212 C.3     6  UNL6        0.0000
     31 C          39.1662   31.3080    8.7858 C.3     6  UNL6        0.0000
     32 C          38.4003   30.7957    9.8014 C.3     6  UNL6        0.0000
     33 C          38.2205   29.4599    9.5540 C.3     6  UNL6        0.0000
     34 C          41.4627   25.2285   12.3953 C.3     7  UNL7        0.0000
     35 C          42.6618   25.1279   13.0345 C.3     7  UNL7        0.0000
     36 C          42.4691   25.5769   14.3699 C.3     7  UNL7        0.0000
     37 C          41.1902   25.9349   14.5473 C.3     7  UNL7        0.0000
     38 C          40.6005   25.7185   13.3429 C.3     7  UNL7        0.0000
@<TRIPOS>BOND
     1     1     2    1
     2     2     3    1
     3     3     4    1
     4     4     5    1
     5     5     1    1
     6     6     7    1
     7     7     8    1
     8     8     9    1
     9     9    10    1
    10    10    11    1
    11    11     6    1
    12    12    13    1
    13    13    14    1
    14    14    15    1
    15    15    16    1
    16    16    17    1
    17    17    12    1
    18    18    19    1
    19    19    20    1
    20    20    21    1
    21    21    22    1
    22    22    18    1
    23    23    24    1
    24    24    25    1
    25    25    26    1
    26    26    27    1
    27    27    28    1
    28    28    23    1
    29    29    30    1
    30    30    31    1
    31    31    32    1
    32    32    33    1
    33    33    29    1
    34    34    35    1
    35    35    36    1
    36    36    37    1
    37    37    38    1
    38    38    34    1
