fakelig
  ATLAS   

 82 72  0  0  0  0  0  0  0  0  1 V2000
   40.4813   25.8125   12.5516 C   0  0  0  0  0  0  0  0  0  0  0  0
   40.4813   25.8125   12.5516 C   0  0  0  0  0  0  0  0  0  0  0  0
   40.4813   25.8125   12.5516 N   0  0  0  0  0  0  0  0  0  0  0  0
   40.4813   25.8125   12.5516 O   0  0  0  0  0  0  0  0  0  0  0  0
   39.4997   26.0213   12.6524 H   0  0  0  0  0  0  0  0  0  0  0  0
   43.2205   25.5637   12.1874 C   0  0  0  0  0  0  0  0  0  0  0  0
   43.2205   25.5637   12.1874 C   0  0  0  0  0  0  0  0  0  0  0  0
   43.2205   25.5637   12.1874 N   0  0  0  0  0  0  0  0  0  0  0  0
   43.2205   25.5637   12.1874 O   0  0  0  0  0  0  0  0  0  0  0  0
   44.1839   25.8552   12.2567 H   0  0  0  0  0  0  0  0  0  0  0  0
   42.8945   27.9274   13.3150 C   0  0  0  0  0  0  0  0  0  0  0  0
   42.8945   27.9274   13.3150 C   0  0  0  0  0  0  0  0  0  0  0  0
   42.8945   27.9274   13.3150 N   0  0  0  0  0  0  0  0  0  0  0  0
   42.8945   27.9274   13.3150 O   0  0  0  0  0  0  0  0  0  0  0  0
   43.9028   27.9056   13.3826 H   0  0  0  0  0  0  0  0  0  0  0  0
   44.0960   25.7750    9.2177 C   0  0  0  0  0  0  0  0  0  0  0  0
   44.0960   25.7750    9.2177 C   0  0  0  0  0  0  0  0  0  0  0  0
   44.0960   25.7750    9.2177 N   0  0  0  0  0  0  0  0  0  0  0  0
   44.0960   25.7750    9.2177 O   0  0  0  0  0  0  0  0  0  0  0  0
   43.9085   24.8884    8.8655 H   0  0  0  0  0  0  0  0  0  0  0  0
   43.5117   24.6904   14.0903 C   0  0  0  0  0  0  0  0  0  0  0  0
   43.5117   24.6904   14.0903 C   0  0  0  0  0  0  0  0  0  0  0  0
   43.5117   24.6904   14.0903 N   0  0  0  0  0  0  0  0  0  0  0  0
   43.5117   24.6904   14.0903 O   0  0  0  0  0  0  0  0  0  0  0  0
   43.2529   24.0929   14.8601 H   0  0  0  0  0  0  0  0  0  0  0  0
   39.9880   29.1231   13.6132 C   0  0  0  0  0  0  0  0  0  0  0  0
   39.9880   29.1231   13.6132 C   0  0  0  0  0  0  0  0  0  0  0  0
   39.9880   29.1231   13.6132 N   0  0  0  0  0  0  0  0  0  0  0  0
   39.9880   29.1231   13.6132 O   0  0  0  0  0  0  0  0  0  0  0  0
   39.5691   29.0480   14.4888 H   0  0  0  0  0  0  0  0  0  0  0  0
   38.7477   28.9376   11.2268 C   0  0  0  0  0  0  0  0  0  0  0  0
   38.7477   28.9376   11.2268 C   0  0  0  0  0  0  0  0  0  0  0  0
   38.7477   28.9376   11.2268 N   0  0  0  0  0  0  0  0  0  0  0  0
   38.7477   28.9376   11.2268 O   0  0  0  0  0  0  0  0  0  0  0  0
   38.5450   28.3232   12.0004 H   0  0  0  0  0  0  0  0  0  0  0  0
   38.0842   30.4249   10.3116 C   0  0  0  0  0  0  0  0  0  0  0  0
   38.0842   30.4249   10.3116 C   0  0  0  0  0  0  0  0  0  0  0  0
   38.0842   30.4249   10.3116 N   0  0  0  0  0  0  0  0  0  0  0  0
   38.0842   30.4249   10.3116 O   0  0  0  0  0  0  0  0  0  0  0  0
   37.7931   30.9914   11.0933 H   0  0  0  0  0  0  0  0  0  0  0  0
   40.8876   25.4571   14.7410 O   0  0  0  0  0  0  0  0  0  0  0  0
   40.8876   25.4571   14.7410 C   0  0  0  0  0  0  0  0  0  0  0  0
   43.2597   24.6206   14.2217 O   0  0  0  0  0  0  0  0  0  0  0  0
   43.2597   24.6206   14.2217 C   0  0  0  0  0  0  0  0  0  0  0  0
   43.3034   27.1084   11.2606 C   0  0  0  0  0  0  0  0  0  0  0  0
   42.7773   25.8443   11.3329 C   0  0  0  0  0  0  0  0  0  0  0  0
   42.0936   25.7336   12.5172 C   0  0  0  0  0  0  0  0  0  0  0  0
   42.1955   26.9298   13.1800 C   0  0  0  0  0  0  0  0  0  0  0  0
   42.9424   27.7754   12.4021 C   0  0  0  0  0  0  0  0  0  0  0  0
   40.2769   28.6668   11.0465 C   0  0  0  0  0  0  0  0  0  0  0  0
   39.5119   27.4307   10.5289 C   0  0  0  0  0  0  0  0  0  0  0  0
   38.4138   27.8034    9.5231 C   0  0  0  0  0  0  0  0  0  0  0  0
   37.5641   28.9525   10.0772 C   0  0  0  0  0  0  0  0  0  0  0  0
   38.4142   30.1793   10.3088 C   0  0  0  0  0  0  0  0  0  0  0  0
   39.6514   29.9761   10.8065 C   0  0  0  0  0  0  0  0  0  0  0  0
   39.1081   32.3933    7.4413 C   0  0  0  0  0  0  0  0  0  0  0  0
   39.0166   31.3723    8.5912 C   0  0  0  0  0  0  0  0  0  0  0  0
   40.3179   30.5724    8.7308 C   0  0  0  0  0  0  0  0  0  0  0  0
   40.6821   29.9369    7.3834 C   0  0  0  0  0  0  0  0  0  0  0  0
   40.8531   30.9820    6.3055 C   0  0  0  0  0  0  0  0  0  0  0  0
   40.0549   32.0700    6.3635 C   0  0  0  0  0  0  0  0  0  0  0  0
   41.3000   27.7593   13.6776 C   0  0  0  0  0  0  0  0  0  0  0  0
   40.7418   28.6854   12.8346 C   0  0  0  0  0  0  0  0  0  0  0  0
   40.4232   28.0538   11.6595 C   0  0  0  0  0  0  0  0  0  0  0  0
   40.7826   26.7356   11.7760 C   0  0  0  0  0  0  0  0  0  0  0  0
   41.3227   26.5562   13.0228 C   0  0  0  0  0  0  0  0  0  0  0  0
   41.5348   25.7008   11.4365 C   0  0  0  0  0  0  0  0  0  0  0  0
   40.7108   26.5255   10.6522 C   0  0  0  0  0  0  0  0  0  0  0  0
   41.2386   27.0120    9.4416 C   0  0  0  0  0  0  0  0  0  0  0  0
   42.5414   26.6819    9.0243 C   0  0  0  0  0  0  0  0  0  0  0  0
   43.3020   25.8509    9.8635 C   0  0  0  0  0  0  0  0  0  0  0  0
   42.8030   25.3744   11.0439 C   0  0  0  0  0  0  0  0  0  0  0  0
   38.8769   29.1408    8.3944 C   0  0  0  0  0  0  0  0  0  0  0  0
   39.4652   30.2855    7.9212 C   0  0  0  0  0  0  0  0  0  0  0  0
   39.1662   31.3080    8.7858 C   0  0  0  0  0  0  0  0  0  0  0  0
   38.4003   30.7957    9.8014 C   0  0  0  0  0  0  0  0  0  0  0  0
   38.2205   29.4599    9.5540 C   0  0  0  0  0  0  0  0  0  0  0  0
   41.4627   25.2285   12.3953 C   0  0  0  0  0  0  0  0  0  0  0  0
   42.6618   25.1279   13.0345 C   0  0  0  0  0  0  0  0  0  0  0  0
   42.4691   25.5769   14.3699 C   0  0  0  0  0  0  0  0  0  0  0  0
   41.1902   25.9349   14.5473 C   0  0  0  0  0  0  0  0  0  0  0  0
   40.6005   25.7185   13.3429 C   0  0  0  0  0  0  0  0  0  0  0  0
  1  3  2  0  0  0  0
  1  4  1  0  0  0  0
  2  4  1  0  0  0  0
  3  5  1  0  0  0  0
  6  8  2  0  0  0  0
  6  9  1  0  0  0  0
  7  9  1  0  0  0  0
  8 10  1  0  0  0  0
 11 13  2  0  0  0  0
 11 14  1  0  0  0  0
 12 14  1  0  0  0  0
 13 15  1  0  0  0  0
 16 18  2  0  0  0  0
 16 19  1  0  0  0  0
 17 19  1  0  0  0  0
 18 20  1  0  0  0  0
 21 23  2  0  0  0  0
 21 24  1  0  0  0  0
 22 24  1  0  0  0  0
 23 25  1  0  0  0  0
 26 28  2  0  0  0  0
 26 29  1  0  0  0  0
 27 29  1  0  0  0  0
 28 30  1  0  0  0  0
 31 33  2  0  0  0  0
 31 34  1  0  0  0  0
 32 34  1  0  0  0  0
 33 35  1  0  0  0  0
 36 38  2  0  0  0  0
 36 39  1  0  0  0  0
 37 39  1  0  0  0  0
 38 40  1  0  0  0  0
 41 42  2  0  0  0  0
 43 44  2  0  0  0  0
 45 46  1  0  0  0  0
 46 47  1  0  0  0  0
 47 48  1  0  0  0  0
 48 49  1  0  0  0  0
 49 45  1  0  0  0  0
 50 51  1  0  0  0  0
 51 52  1  0  0  0  0
 52 53  1  0  0  0  0
 53 54  1  0  0  0  0
 54 55  1  0  0  0  0
 55 50  1  0  0  0  0
 56 57  1  0  0  0  0
 57 58  1  0  0  0  0
 58 59  1  0  0  0  0
 59 60  1  0  0  0  0
 60 61  1  0  0  0  0
 61 56  1  0  0  0  0
 62 63  1  0  0  0  0
 63 64  1  0  0  0  0
 64 65  1  0  0  0  0
 65 66  1  0  0  0  0
 66 62  1  0  0  0  0
 67 68  1  0  0  0  0
 68 69  1  0  0  0  0
 69 70  1  0  0  0  0
 70 71  1  0  0  0  0
 71 72  1  0  0  0  0
 72 67  1  0  0  0  0
 73 74  1  0  0  0  0
 74 75  1  0  0  0  0
 75 76  1  0  0  0  0
 76 77  1  0  0  0  0
 77 73  1  0  0  0  0
 78 79  1  0  0  0  0
 79 80  1  0  0  0  0
 80 81  1  0  0  0  0
 81 82  1  0  0  0  0
 82 78  1  0  0  0  0
M  END
$$$$
